13

C          0.00000        0.00000        0.00000
C          1.20797       -0.01036        0.73176
C          1.20673       -0.00738        2.12848
C         -0.00017       -0.00270        2.82919
C         -1.20724       -0.00493        2.12814
C         -1.21115       -0.01036        0.73036
S         -0.00000       -0.00000        4.62175
H          2.16382       -0.03871        0.22497
H          2.14730       -0.01563        2.66457
H         -2.14705       -0.00343        2.66579
H         -2.17275       -0.00265        0.24023
H          0.00104        0.01463       -1.03190
H         -1.28217        0.00453        5.07519
