13

C          0.00000        0.00000        4.62175
C          1.20798        0.00914        3.88999
C          1.20673        0.00615        2.49328
C         -0.00016        0.00270        1.79257
C         -1.20724        0.00615        2.49362
C         -1.21115        0.01159        3.89139
S          0.00000        0.00000        0.00000
H          2.16386        0.03652        4.39678
H          2.14731        0.01345        1.95719
H         -2.14704        0.00561        1.95596
H         -2.17274        0.00485        4.38152
H          0.00102       -0.01462        5.65365
H          1.28226       -0.00323       -0.45321
