24

C         -1.39870        0.01013        7.14071
C         -0.00000       -0.00000        7.41465
C          0.90342       -0.00654        6.39836
C          0.46430       -0.00336        5.03400
C         -1.85198        0.01341        5.85865
C         -0.93066        0.00674        4.76079
C          1.37776       -0.00998        3.97725
C          0.93044       -0.00674        2.65381
C         -1.37799        0.00998        3.43745
C         -0.46447        0.00336        2.38056
C          1.85184       -0.01341        1.55610
C          1.39862       -0.01013        0.27398
C          0.00000        0.00000        0.00000
C         -0.90359        0.00654        1.01628
H         -2.09838        0.01520        7.98294
H          0.33047       -0.00239        8.45852
H          1.98078       -0.01435        6.59912
H         -2.92549        0.02119        5.63820
H          2.45426       -0.01778        4.18805
H         -2.45447        0.01778        3.22660
H          2.92533       -0.02119        1.77661
H          2.09826       -0.01520       -0.56822
H         -0.33012        0.00239       -1.04399
H         -1.98093        0.01435        0.81542
