12

C          0.00000        0.00000        0.00000
C          1.21161        0.00000        0.69953
C          1.21161        0.00000        2.09857
C          0.00000        0.00000        2.79809
C         -1.21161       -0.00000        2.09857
C         -1.21161       -0.00000        0.69952
H          0.00000        0.00000       -1.08234
H         -2.14894       -0.00000        0.15835
H          2.14894        0.00000        0.15836
H          2.14894        0.00000        2.63974
H         -0.00000       -0.00000        3.88043
H         -2.14895       -0.00000        2.63974
