8

C          0.00000        0.00000        0.00000
C          0.00000        0.00000        1.20535
H          0.05116        1.03580        0.28091
H          0.00001       -0.06385       -0.68607
H          1.13089       -0.33797        0.28090
H         -1.18329        0.35745        0.73395
H         -0.00832        0.05328        1.92280
H         -0.10356       -1.01632        0.73396
