52

C         -0.16001        6.27272        2.96748
C         -1.50996        6.12997        2.57450
C         -1.89819        5.96192        1.23055
C         -0.91901        6.22393        0.25245
C          0.43085        6.31038        0.62109
C          0.84941        6.18311        1.96096
H         -2.28061        6.06286        3.36175
H         -1.18653        6.20101       -0.81811
H          1.19646        6.32506       -0.17407
C         -0.14944        3.08538        2.85065
C         -1.44656        2.84221        2.35917
C         -1.66842        3.18012        0.99417
C         -0.53326        3.15159        0.16060
C          0.78985        3.08938        0.64346
C          0.95957        3.36529        2.02683
H          0.01520        3.04184        3.94258
H         -0.68393        3.19190       -0.93370
C         -0.00000        0.00000        0.00000
C          1.20910        0.29873        0.69924
C          1.19476        0.14118        2.09968
C          0.00000        0.00000        2.81977
C         -1.23569        0.05716        2.14597
C         -1.19828       -0.08208        0.74443
H          0.02985        0.00812        3.92298
H          2.13584        0.28618        2.65847
H         -2.15123       -0.17517        0.19560
C          2.23285        5.60495        2.22819
C          2.18190        4.05567        2.59657
H          2.78089        6.12085        3.04377
H          2.84096        5.73056        1.30604
H          2.16252        3.95925        3.70356
H          3.13593        3.59814        2.25130
C         -3.19790        5.26212        0.88173
C         -2.98105        3.73087        0.47448
H         -3.72225        5.76761        0.04055
H         -3.87907        5.30548        1.75900
H         -2.98697        3.65850       -0.63514
H         -3.86194        3.15551        0.83531
C          1.91147        2.60187       -0.25089
C          2.34265        1.10501        0.07898
H          2.82434        3.23533       -0.18419
H          1.56905        2.64373       -1.30740
H          3.18256        1.13003        0.80681
H          2.74423        0.66291       -0.85627
C         -2.45007        2.08647        3.20661
C         -2.49765        0.53057        2.84197
H         -3.48267        2.48934        3.11358
H         -2.16477        2.18770        4.27662
H         -3.36829        0.34661        2.17581
H         -2.68502       -0.03470        3.78202
H          0.08975        6.43729        3.95519
H          0.00148       -0.15172       -1.02079
