44

C          0.00000        0.00000        0.00000
C          1.33686       -0.09624        0.38260
C          1.68402       -0.09655        1.73413
C         -1.00320        0.09689        0.96509
C          0.68884       -0.03811        2.72895
C         -0.68353        0.06067        2.33621
H         -0.25919        0.01831       -1.05068
H         -2.02758        0.19765        0.63251
H          2.73272       -0.14502        1.99485
C          1.02148        0.06484        4.10528
C         -1.67391        0.25881        3.33392
C         -0.00000       -0.00000        5.06543
C         -1.33017        0.09571        4.68477
H         -2.06224        0.23071        5.47162
H          0.21838        0.06662        6.12428
H         -3.12054        3.18112        5.20255
C         -1.72453        3.13221        6.81467
C         -2.07180        3.13273        5.46316
C         -0.38764        3.03603        7.19715
C         -1.07670        3.07448        4.46824
C         -1.40943        2.97167        3.09191
H         -0.12835        3.01755        8.24780
C          0.61548        2.93939        6.23197
C          0.29570        2.97575        4.86087
C         -0.38800        3.03657        2.13169
H         -0.60645        2.97003        1.07286
H          1.63989        2.83865        6.56445
C          1.28600        2.77770        3.86308
C          0.94219        2.94085        2.51226
H          1.67420        2.80588        1.72536
C         -3.02226        0.95484        3.05245
C         -2.78214        2.47145        2.59476
H         -2.74943        2.44453        1.48453
H         -3.63411        3.13435        2.85383
H         -3.57571        1.01925        4.01367
H         -3.68915        0.40127        2.35878
C          2.39418        0.56509        4.60243
C          2.63434        2.08164        4.14449
H          3.30132        2.63527        4.83805
H          3.18769        2.01710        3.18322
H          3.24615       -0.09784        4.34350
H          2.36141        0.59218        5.71265
H          2.07323       -0.16758       -0.33691
H         -2.46084        3.20335        7.53426
